Version 4
SHEET 1 1176 680
WIRE -48 32 -80 32
WIRE -64 64 -80 64
WIRE -48 64 -48 32
WIRE 96 64 -48 64
WIRE 832 64 800 64
WIRE -64 80 -64 64
WIRE 16 80 -64 80
WIRE 800 80 800 64
WIRE 800 80 224 80
WIRE 0 96 -80 96
WIRE 96 96 64 96
WIRE 832 96 448 96
WIRE -16 112 -64 112
WIRE 240 112 224 112
WIRE 816 112 576 112
WIRE -64 128 -64 112
WIRE -64 128 -80 128
WIRE 800 128 736 128
WIRE 816 128 816 112
WIRE 832 128 816 128
WIRE 784 144 752 144
WIRE 800 160 800 128
WIRE 832 160 800 160
WIRE 16 176 16 80
WIRE 256 176 16 176
WIRE -48 192 -80 192
WIRE 448 192 448 96
WIRE 448 192 384 192
WIRE 784 192 784 144
WIRE 832 192 784 192
WIRE -48 208 -48 192
WIRE 64 208 64 96
WIRE 64 208 -48 208
WIRE 256 208 96 208
WIRE 96 224 96 208
WIRE 96 224 -80 224
WIRE 400 224 384 224
WIRE 96 240 -64 240
WIRE 240 240 240 112
WIRE 256 240 240 240
WIRE -64 256 -64 240
WIRE -64 256 -80 256
WIRE 80 256 -48 256
WIRE -48 288 -48 256
WIRE -48 288 -80 288
WIRE 0 320 0 96
WIRE 416 320 0 320
WIRE 576 336 576 112
WIRE 576 336 544 336
WIRE 96 352 96 240
WIRE 416 352 96 352
WIRE 560 368 544 368
WIRE 400 384 400 224
WIRE 416 384 400 384
WIRE -16 448 -16 112
WIRE 576 448 -16 448
WIRE 736 464 736 128
WIRE 736 464 704 464
WIRE 80 480 80 256
WIRE 576 480 80 480
WIRE 752 496 752 144
WIRE 752 496 704 496
WIRE 560 512 560 368
WIRE 576 512 560 512
FLAG -80 32 A1
IOPIN -80 32 In
FLAG -80 64 A2
IOPIN -80 64 In
FLAG -80 96 A3
IOPIN -80 96 In
FLAG -80 128 A4
IOPIN -80 128 In
FLAG -80 192 B1
IOPIN -80 192 In
FLAG -80 224 B2
IOPIN -80 224 In
FLAG -80 256 B3
IOPIN -80 256 In
FLAG -80 288 B4
IOPIN -80 288 In
FLAG 832 64 C1
IOPIN 832 64 Out
FLAG 832 96 C2
IOPIN 832 96 Out
FLAG 832 128 C3
IOPIN 832 128 Out
FLAG 832 160 C4
IOPIN 832 160 Out
FLAG 832 192 C5
IOPIN 832 192 Out
FLAG 96 128 0
SYMBOL sum3 144 96 R0
SYMATTR InstName X1
SYMBOL sum3 304 208 R0
SYMATTR InstName X2
SYMBOL sum3 464 352 R0
SYMATTR InstName X3
SYMBOL sum3 624 480 R0
SYMATTR InstName X4
