Version 4
SHEET 1 880 680
WIRE 144 48 -192 48
WIRE 128 64 -96 64
WIRE 112 96 16 96
WIRE -192 144 -192 48
WIRE -96 144 -96 64
WIRE 16 144 16 96
WIRE 144 144 144 48
WIRE 160 144 144 144
WIRE 512 160 288 160
WIRE 128 176 128 64
WIRE 160 176 128 176
WIRE 512 192 288 192
WIRE 112 208 112 96
WIRE 160 208 112 208
FLAG 16 224 0
FLAG -96 224 0
FLAG -192 224 0
SYMBOL sum3 208 176 R0
SYMATTR InstName X1
SYMBOL voltage -192 128 R0
WINDOW 123 0 0 Left 0
WINDOW 39 0 0 Left 0
SYMATTR InstName V1
SYMATTR Value 5
SYMBOL voltage -96 128 R0
WINDOW 123 0 0 Left 0
WINDOW 39 0 0 Left 0
SYMATTR InstName V2
SYMATTR Value 5
SYMBOL voltage 16 128 R0
WINDOW 123 0 0 Left 0
WINDOW 39 0 0 Left 0
SYMATTR InstName V3
SYMATTR Value 0
TEXT -224 248 Left 2 !.tran 0 1 0 ,1
