Version 4
SHEET 1 880 680
WIRE 160 80 -80 80
WIRE -80 112 -80 80
WIRE 160 160 160 80
WIRE 176 160 160 160
WIRE 112 176 16 176
WIRE 400 176 256 176
WIRE 16 192 16 176
WIRE 112 192 112 176
WIRE 176 192 112 192
FLAG 16 272 0
FLAG -80 192 0
SYMBOL nor 192 192 R0
SYMATTR InstName X1
SYMBOL voltage -80 96 R0
WINDOW 123 0 0 Left 0
WINDOW 39 0 0 Left 0
SYMATTR InstName V1
SYMATTR Value 5
SYMBOL voltage 16 176 R0
WINDOW 123 0 0 Left 0
WINDOW 39 0 0 Left 0
SYMATTR InstName V2
SYMATTR Value 0
TEXT -112 296 Left 2 !.tran 0 1 0 .1
