Version 4
SHEET 1 1228 680
WIRE 80 96 48 96
WIRE -32 112 -64 112
WIRE 32 112 -32 112
WIRE 48 112 48 96
WIRE 48 112 32 112
WIRE 176 112 160 112
WIRE 48 128 48 112
WIRE 80 128 48 128
WIRE 176 128 176 112
WIRE 192 128 176 128
WIRE 512 128 496 128
WIRE 288 144 272 144
WIRE 624 144 592 144
WIRE -48 160 -64 160
WIRE 16 160 -48 160
WIRE 48 160 16 160
WIRE 80 160 48 160
WIRE 192 160 176 160
WIRE 288 160 288 144
WIRE 304 160 288 160
WIRE 496 160 496 128
WIRE 496 160 480 160
WIRE 512 160 496 160
WIRE 624 160 624 144
WIRE 640 160 624 160
WIRE 176 176 176 160
WIRE 176 176 160 176
WIRE 432 176 384 176
WIRE 480 176 480 160
WIRE 480 176 432 176
WIRE 752 176 720 176
WIRE 48 192 48 160
WIRE 80 192 48 192
WIRE 304 192 288 192
WIRE 512 192 448 192
WIRE 640 192 624 192
WIRE 624 208 624 192
WIRE 624 208 592 208
WIRE 448 224 448 192
WIRE 512 224 448 224
WIRE 752 224 752 176
WIRE 784 224 752 224
WIRE 1152 224 1056 224
WIRE 32 240 32 112
WIRE 144 240 32 240
WIRE 1056 240 1056 224
WIRE 1056 240 864 240
WIRE -16 256 -64 256
WIRE 288 256 288 192
WIRE 288 256 224 256
WIRE 784 256 752 256
WIRE 16 272 16 160
WIRE 144 272 16 272
WIRE 432 272 432 176
WIRE 512 272 432 272
WIRE 752 288 752 256
WIRE 752 288 592 288
WIRE 1152 288 1056 288
WIRE -16 304 -16 256
WIRE 384 304 -16 304
WIRE 448 304 448 224
WIRE 448 304 384 304
WIRE 512 304 448 304
WIRE 432 368 432 272
WIRE 512 368 432 368
WIRE 608 384 592 384
WIRE 432 400 432 368
WIRE 512 400 432 400
WIRE 608 416 608 384
WIRE 624 416 608 416
WIRE 720 432 704 432
WIRE 384 448 384 304
WIRE 512 448 384 448
WIRE 624 448 608 448
WIRE 608 464 608 448
WIRE 608 464 592 464
WIRE -32 480 -32 112
WIRE 240 480 -32 480
WIRE 384 480 384 448
WIRE 512 480 384 480
WIRE 336 496 320 496
WIRE -32 512 -32 480
WIRE 240 512 -32 512
WIRE 336 528 336 496
WIRE 352 528 336 528
WIRE 720 528 720 432
WIRE 736 528 720 528
WIRE 848 528 832 528
WIRE 720 544 432 544
WIRE 832 544 832 528
WIRE 832 544 816 544
WIRE 1056 544 1056 288
WIRE 1056 544 928 544
WIRE -48 560 -48 160
WIRE 240 560 -48 560
WIRE 352 560 336 560
WIRE 720 560 720 544
WIRE 736 560 720 560
WIRE 832 560 832 544
WIRE 848 560 832 560
WIRE 336 576 336 560
WIRE 336 576 320 576
WIRE -48 592 -48 560
WIRE 240 592 -48 592
FLAG -64 112 A
IOPIN -64 112 In
FLAG -64 160 B
IOPIN -64 160 In
FLAG -64 256 C
IOPIN -64 256 In
FLAG 1152 224 A
IOPIN 1152 224 Out
FLAG 1152 288 C
IOPIN 1152 288 Out
SYMBOL nor 96 128 R0
SYMATTR InstName X1
SYMBOL nor 96 192 R0
SYMATTR InstName X2
SYMBOL nor 208 160 R0
SYMATTR InstName X3
SYMBOL nor 320 192 R0
SYMATTR InstName X4
SYMBOL nor 160 272 R0
SYMATTR InstName X5
SYMBOL nor 528 160 R0
SYMATTR InstName X6
SYMBOL nor 528 224 R0
SYMATTR InstName X7
SYMBOL nor 656 192 R0
SYMATTR InstName X8
SYMBOL nor 528 304 R0
SYMATTR InstName X9
SYMBOL nor 800 256 R0
SYMATTR InstName X10
SYMBOL nor 528 400 R0
SYMATTR InstName X11
SYMBOL nor 528 480 R0
SYMATTR InstName X12
SYMBOL nor 640 448 R0
SYMATTR InstName X13
SYMBOL nor 752 560 R0
SYMATTR InstName X14
SYMBOL nor 864 560 R0
SYMATTR InstName X15
SYMBOL nor 256 512 R0
SYMATTR InstName X16
SYMBOL nor 256 592 R0
SYMATTR InstName X17
SYMBOL nor 368 560 R0
SYMATTR InstName X18
