Version 4
SHEET 1 880 680
WIRE 128 -32 -224 -32
WIRE 112 -16 -144 -16
WIRE 96 0 -64 0
WIRE 80 16 16 16
WIRE -224 32 -224 -32
WIRE -144 32 -144 -16
WIRE -64 32 -64 0
WIRE 16 32 16 16
WIRE 128 32 128 -32
WIRE 192 32 128 32
WIRE 112 64 112 -16
WIRE 192 64 112 64
WIRE 448 64 416 64
WIRE 96 96 96 0
WIRE 192 96 96 96
WIRE 416 112 416 64
WIRE 416 112 320 112
WIRE 80 128 80 16
WIRE 192 128 80 128
WIRE 448 144 320 144
WIRE 128 160 -224 160
WIRE 112 176 -144 176
WIRE 128 176 128 160
WIRE 192 176 128 176
WIRE 432 176 320 176
WIRE 96 192 -64 192
WIRE 80 208 16 208
WIRE 112 208 112 176
WIRE 192 208 112 208
WIRE 416 208 320 208
WIRE -224 224 -224 160
WIRE -144 224 -144 176
WIRE -64 224 -64 192
WIRE 16 224 16 208
WIRE 432 224 432 176
WIRE 448 224 432 224
WIRE 96 240 96 192
WIRE 192 240 96 240
WIRE 80 272 80 208
WIRE 192 272 80 272
WIRE 416 304 416 208
WIRE 448 304 416 304
FLAG -224 112 0
FLAG -144 112 0
FLAG -64 112 0
FLAG 16 112 0
FLAG 16 304 0
FLAG -64 304 0
FLAG -144 304 0
FLAG -224 304 0
SYMBOL sum4 240 80 R0
SYMATTR InstName X1
SYMBOL voltage -224 16 R0
WINDOW 3 24 96 Invisible 2
WINDOW 123 0 0 Left 0
WINDOW 39 0 0 Left 0
SYMATTR Value 0
SYMATTR InstName V1
SYMBOL voltage -144 16 R0
WINDOW 3 24 96 Invisible 2
WINDOW 123 0 0 Left 0
WINDOW 39 0 0 Left 0
SYMATTR Value 0
SYMATTR InstName V2
SYMBOL voltage -64 16 R0
WINDOW 3 24 96 Invisible 2
WINDOW 123 0 0 Left 0
WINDOW 39 0 0 Left 0
SYMATTR Value 0
SYMATTR InstName V3
SYMBOL voltage 16 16 R0
WINDOW 3 24 96 Invisible 2
WINDOW 123 0 0 Left 0
WINDOW 39 0 0 Left 0
SYMATTR Value 0
SYMATTR InstName V4
SYMBOL voltage -224 208 R0
WINDOW 3 24 96 Invisible 2
WINDOW 123 0 0 Left 0
WINDOW 39 0 0 Left 0
SYMATTR Value PULSE(0 5 0 1n 1n 10n 20n)
SYMATTR InstName V5
SYMBOL voltage -144 208 R0
WINDOW 3 24 96 Invisible 2
WINDOW 123 0 0 Left 0
WINDOW 39 0 0 Left 0
SYMATTR Value 0
SYMATTR InstName V6
SYMBOL voltage -64 208 R0
WINDOW 3 24 96 Invisible 2
WINDOW 123 0 0 Left 0
WINDOW 39 0 0 Left 0
SYMATTR Value 0
SYMATTR InstName V7
SYMBOL voltage 16 208 R0
WINDOW 3 24 96 Invisible 2
WINDOW 123 0 0 Left 0
WINDOW 39 0 0 Left 0
SYMATTR Value 0
SYMATTR InstName V8
SYMBOL res 544 48 R90
WINDOW 0 0 56 VBottom 2
WINDOW 3 32 56 VTop 2
SYMATTR InstName R1
SYMATTR Value 4700
SYMBOL res 544 128 R90
WINDOW 0 0 56 VBottom 2
WINDOW 3 32 56 VTop 2
SYMATTR InstName R2
SYMATTR Value 4700
SYMBOL res 544 208 R90
WINDOW 0 0 56 VBottom 2
WINDOW 3 32 56 VTop 2
SYMATTR InstName R3
SYMATTR Value 4700
SYMBOL res 544 288 R90
WINDOW 0 0 56 VBottom 2
WINDOW 3 32 56 VTop 2
SYMATTR InstName r4
SYMATTR Value 4700
TEXT -256 352 Left 2 !.tran 300n
